obj01
     RDKit          3D

 25 27  0  0  0  0  0  0  0  0999 V2000
   37.3480  -11.5030   28.4200 C   0  0  0  0  0  0  0  0  0  0  0  0
   41.5970   -8.9100   28.2090 C   0  0  0  0  0  0  0  0  0  0  0  0
   33.8750   -6.3910   25.5950 C   0  0  0  0  0  0  0  0  0  0  0  0
   35.2640   -6.5680   25.6470 C   0  0  0  0  0  0  0  0  0  0  0  0
   33.2060   -6.6510   24.4070 C   0  0  0  0  0  0  0  0  0  0  0  0
   35.9680   -6.9970   24.5290 C   0  0  0  0  0  0  0  0  0  0  0  0
   38.0490  -10.3920   26.2950 C   0  0  0  0  0  0  0  0  0  0  0  0
   40.1020   -9.1430   26.1950 C   0  0  0  0  0  0  0  0  0  0  0  0
   37.7700   -9.4210   22.1080 C   0  0  0  0  0  0  0  0  0  0  0  0
   37.8260  -10.0100   23.4830 C   0  0  0  0  0  0  0  0  0  0  0  0
   37.3510   -7.9920   21.9630 C   0  0  0  0  0  0  0  0  0  0  0  0
   35.1510   -8.3700   19.6660 C   0  0  0  0  0  0  0  0  0  0  0  0
   38.3180  -10.6800   27.6320 C   0  0  0  0  0  0  0  0  0  0  0  0
   40.3630   -9.4280   27.5350 C   0  0  0  0  0  0  0  0  0  0  0  0
   38.9470   -9.6210   25.5900 C   0  0  0  0  0  0  0  0  0  0  0  0
   39.4700  -10.2020   28.2590 C   0  0  0  0  0  0  0  0  0  0  0  0
   35.8870   -7.7310   22.1150 C   0  0  0  0  0  0  0  0  0  0  0  0
   34.9500   -7.9270   21.0700 C   0  0  0  0  0  0  0  0  0  0  0  0
   33.8970   -7.0980   23.2830 C   0  0  0  0  0  0  0  0  0  0  0  0
   35.2930   -7.2720   23.3400 C   0  0  0  0  0  0  0  0  0  0  0  0
   34.2990   -7.9750   18.8340 O   0  0  0  0  0  0  0  0  0  0  0  0
   36.1100   -9.0960   19.2990 O   0  0  0  0  0  0  0  0  0  0  0  0
   38.7230   -9.3180   24.2740 O   0  0  0  0  0  0  0  0  0  0  0  0
   39.8080  -10.5630   29.9270 Cl  0  0  0  0  0  0  0  0  0  0  0  0
   33.4380   -7.5230   21.7050 S   0  0  0  0  0  0  0  0  0  0  0  0
  1 13  1  0
  2 14  1  0
  3  4  2  0
  3  5  1  0
  4  6  1  0
  5 19  2  0
  6 20  2  0
  7 13  2  0
  7 15  1  0
  8 14  1  0
  8 15  2  0
  9 10  1  0
  9 11  1  0
 10 23  1  0
 11 17  1  0
 12 18  1  0
 12 21  4  0
 12 22  4  0
 13 16  1  0
 14 16  2  0
 15 23  1  0
 16 24  1  0
 17 18  2  0
 17 20  1  0
 18 25  1  0
 19 20  1  0
 19 25  1  0
M  ISO  8   1  51   2  51   3   2   4   2   5   2   6   2   7   1   8   1
M  ISO  8  12   2  13   1  14   1  15   1  16   1  17   2  18   2  19   2
M  ISO  5  20   2  21   2  22   2  24  51  25   2
M  END
$$$$
