@<TRIPOS>MOLECULE
A08
   15    15     1     0     0
SMALL
resp


@<TRIPOS>ATOM
      1 C1           2.4250    -0.0000     0.0090 c3         1 A08    -0.450090
      2 C2           0.9140     0.0000    -0.0110 ca         1 A08     0.331030
      3 C3           0.1940     1.2020    -0.0090 ca         1 A08    -0.304640
      4 C4          -1.2010     1.2050     0.0020 ca         1 A08    -0.094380
      5 C5          -1.9050     0.0000     0.0080 ca         1 A08    -0.194820
      6 C6          -1.2010    -1.2050     0.0020 ca         1 A08    -0.094380
      7 C7           0.1940    -1.2020    -0.0090 ca         1 A08    -0.304640
      8 H1           2.8340     0.8860    -0.4890 hc         1 A08     0.122060
      9 H2           2.8340    -0.8860    -0.4890 hc         1 A08     0.122060
     10 H3           2.8100    -0.0000     1.0380 hc         1 A08     0.122060
     11 H4           0.7340     2.1470    -0.0180 ha         1 A08     0.163730
     12 H5          -1.7390     2.1500     0.0010 ha         1 A08     0.136630
     13 H6          -2.9920     0.0000     0.0140 ha         1 A08     0.145030
     14 H7          -1.7390    -2.1500     0.0010 ha         1 A08     0.136630
     15 H8           0.7340    -2.1470    -0.0180 ha         1 A08     0.163720
@<TRIPOS>BOND
     1     1     2 1
     2     1     8 1
     3     1     9 1
     4     1    10 1
     5     2     3 ar
     6     2     7 ar
     7     3     4 ar
     8     3    11 1
     9     4     5 ar
    10     4    12 1
    11     5     6 ar
    12     5    13 1
    13     6     7 ar
    14     6    14 1
    15     7    15 1
@<TRIPOS>SUBSTRUCTURE
     1 A08         1 TEMP              0 ****  ****    0 ROOT
