@<TRIPOS>MOLECULE
E23
   18    18     1     0     0
SMALL
resp


@<TRIPOS>ATOM
      1 C1           0.4250    -2.5480     0.0000 c3         1 E23    -0.387720
      2 C2          -0.3170    -1.2350     0.0000 ca         1 E23     0.389020
      3 C3          -1.7180    -1.2060     0.0000 ca         1 E23    -0.414450
      4 C4          -2.4150    -0.0000     0.0000 ca         1 E23    -0.011180
      5 C5          -1.7180     1.2050     0.0000 ca         1 E23    -0.414450
      6 C6          -0.3180     1.2350     0.0000 ca         1 E23     0.389020
      7 C7           0.4250     2.5480     0.0000 c3         1 E23    -0.387720
      8 C8           0.3480     0.0000     0.0000 ca         1 E23    -0.261450
      9 Cl1          2.1190     0.0000     0.0000 cl         1 E23    -0.096590
     10 H1          -0.2770    -3.3870     0.0000 hc         1 E23     0.111640
     11 H2           1.0720    -2.6420     0.8790 hc         1 E23     0.111640
     12 H3           1.0720    -2.6420    -0.8790 hc         1 E23     0.111640
     13 H4          -2.2600    -2.1480     0.0000 ha         1 E23     0.191840
     14 H5          -3.5020    -0.0000     0.0000 ha         1 E23     0.142030
     15 H6          -2.2600     2.1470     0.0000 ha         1 E23     0.191840
     16 H7          -0.2770     3.3860    -0.0000 hc         1 E23     0.111640
     17 H8           1.0720     2.6430    -0.8790 hc         1 E23     0.111640
     18 H9           1.0720     2.6430     0.8790 hc         1 E23     0.111610
@<TRIPOS>BOND
     1     1     2 1
     2     1    10 1
     3     1    11 1
     4     1    12 1
     5     2     3 ar
     6     2     8 ar
     7     3     4 ar
     8     3    13 1
     9     4     5 ar
    10     4    14 1
    11     5     6 ar
    12     5    15 1
    13     6     7 1
    14     6     8 ar
    15     7    16 1
    16     7    17 1
    17     7    18 1
    18     8     9 1
@<TRIPOS>SUBSTRUCTURE
     1 E23         1 TEMP              0 ****  ****    0 ROOT
