@<TRIPOS>MOLECULE
E24
   22    23     1     0     0
SMALL
resp


@<TRIPOS>ATOM
      1 C1           3.5640    -0.0000     0.0000 ca         1 E24    -0.138390
      2 C2           2.8600     1.1390     0.3940 ca         1 E24    -0.153630
      3 C3           1.4660     1.1390     0.3940 ca         1 E24    -0.152590
      4 C4           0.7430    -0.0000     0.0000 cp         1 E24     0.060530
      5 C5          -0.7430    -0.0000     0.0000 cp         1 E24     0.060530
      6 C6          -1.4660     1.1390    -0.3940 ca         1 E24    -0.152590
      7 C7          -2.8600     1.1390    -0.3940 ca         1 E24    -0.153630
      8 C8          -3.5640    -0.0000     0.0000 ca         1 E24    -0.138390
      9 C9          -2.8600    -1.1390     0.3940 ca         1 E24    -0.153630
     10 C10         -1.4660    -1.1390     0.3940 ca         1 E24    -0.152590
     11 C11          1.4660    -1.1390    -0.3940 ca         1 E24    -0.152590
     12 C12          2.8600    -1.1390    -0.3940 ca         1 E24    -0.153630
     13 H1           4.6510    -0.0000     0.0000 ha         1 E24     0.139170
     14 H2           3.3970     2.0300     0.7110 ha         1 E24     0.143350
     15 H3           0.9280     2.0220     0.7290 ha         1 E24     0.132210
     16 H4          -0.9280     2.0220    -0.7290 ha         1 E24     0.132210
     17 H5          -3.3970     2.0300    -0.7110 ha         1 E24     0.143350
     18 H6          -4.6510     0.0000     0.0000 ha         1 E24     0.139170
     19 H7          -3.3970    -2.0300     0.7110 ha         1 E24     0.143350
     20 H8          -0.9280    -2.0220     0.7290 ha         1 E24     0.132210
     21 H9           0.9280    -2.0220    -0.7290 ha         1 E24     0.132210
     22 H10          3.3970    -2.0300    -0.7110 ha         1 E24     0.143370
@<TRIPOS>BOND
     1     1     2 ar
     2     1    12 ar
     3     1    13 1
     4     2     3 ar
     5     2    14 1
     6     3     4 ar
     7     3    15 1
     8     4     5 1
     9     4    11 ar
    10     5     6 ar
    11     5    10 ar
    12     6     7 ar
    13     6    16 1
    14     7     8 ar
    15     7    17 1
    16     8     9 ar
    17     8    18 1
    18     9    10 ar
    19     9    19 1
    20    10    20 1
    21    11    12 ar
    22    11    21 1
    23    12    22 1
@<TRIPOS>SUBSTRUCTURE
     1 E24         1 TEMP              0 ****  ****    0 ROOT
